68816
  -OEChem-08132609492D

108109  0     1  0  0  0  0  0999 V2000
    5.9233   -1.8651    0.0000 O   0  0  0  0  0  0  0  0  0  0  0  0
   14.5880    2.6349    0.0000 O   0  0  0  0  0  0  0  0  0  0  0  0
   11.8560    5.1349    0.0000 O   0  0  0  0  0  0  0  0  0  0  0  0
    9.1239    5.6349    0.0000 O   0  0  0  0  0  0  0  0  0  0  0  0
    8.6554   -4.3651    0.0000 O   0  0  0  0  0  0  0  0  0  0  0  0
    9.1239    2.6349    0.0000 O   0  0  0  0  0  0  0  0  0  0  0  0
   14.1194   -4.3651    0.0000 O   0  0  0  0  0  0  0  0  0  0  0  0
   16.3201    6.6349    0.0000 O   0  0  0  0  0  0  0  0  0  0  0  0
    6.3919    5.1349    0.0000 O   0  0  0  0  0  0  0  0  0  0  0  0
    2.7938    4.1349    0.0000 O   0  0  0  0  0  0  0  0  0  0  0  0
   17.1861    5.1349    0.0000 O   0  0  0  0  0  0  0  0  0  0  0  0
    3.6598    2.6349    0.0000 O   0  0  0  0  0  0  0  0  0  0  0  0
   11.3874   -1.8651    0.0000 O   0  0  0  0  0  0  0  0  0  0  0  0
    2.7938    7.1349    0.0000 O   0  0  0  0  0  0  0  0  0  0  0  0
    4.5259    7.1349    0.0000 O   0  0  0  0  0  0  0  0  0  0  0  0
    2.6164   -5.1970    0.0000 N   0  0  0  0  0  0  0  0  0  0  0  0
    6.9233   -3.3651    0.0000 N   0  0  0  0  0  0  0  0  0  0  0  0
    4.1913   -2.8651    0.0000 N   0  0  0  0  0  0  0  0  0  0  0  0
   13.5880    4.1349    0.0000 N   0  0  0  0  0  0  0  0  0  0  0  0
   10.8560    3.6349    0.0000 N   0  0  0  0  0  0  0  0  0  0  0  0
   16.3201    3.6349    0.0000 N   0  0  0  0  0  0  0  0  0  0  0  0
    9.6554   -2.8651    0.0000 N   0  0  0  0  0  0  0  0  0  0  0  0
    8.1239    4.1349    0.0000 N   0  0  0  0  0  0  0  0  0  0  0  0
    5.3919    3.6349    0.0000 N   0  0  0  0  0  0  0  0  0  0  0  0
   12.3874   -3.3651    0.0000 N   0  0  0  0  0  0  0  0  0  0  0  0
    5.0573   -4.3651    0.0000 C   0  0  0  0  0  0  0  0  0  0  0  0
    4.1913   -4.8651    0.0000 C   0  0  0  0  0  0  0  0  0  0  0  0
    5.0573   -3.3651    0.0000 C   0  0  1  0  0  0  0  0  0  0  0  0
    4.0882   -5.8538    0.0000 C   0  0  0  0  0  0  0  0  0  0  0  0
    3.1097   -6.0601    0.0000 C   0  0  0  0  0  0  0  0  0  0  0  0
    3.2835   -4.4600    0.0000 C   0  0  0  0  0  0  0  0  0  0  0  0
    5.9233   -2.8651    0.0000 C   0  0  0  0  0  0  0  0  0  0  0  0
    4.7560   -6.5981    0.0000 C   0  0  0  0  0  0  0  0  0  0  0  0
    7.7893   -2.8651    0.0000 C   0  0  1  0  0  0  0  0  0  0  0  0
    2.7990   -7.0106    0.0000 C   0  0  0  0  0  0  0  0  0  0  0  0
   12.7220    3.6349    0.0000 C   0  0  2  0  0  0  0  0  0  0  0  0
   15.4541    4.1349    0.0000 C   0  0  2  0  0  0  0  0  0  0  0  0
    9.9900    4.1349    0.0000 C   0  0  1  0  0  0  0  0  0  0  0  0
    4.4454   -7.5487    0.0000 C   0  0  0  0  0  0  0  0  0  0  0  0
    3.4669   -7.7549    0.0000 C   0  0  0  0  0  0  0  0  0  0  0  0
   14.5880    3.6349    0.0000 C   0  0  0  0  0  0  0  0  0  0  0  0
   11.8560    4.1349    0.0000 C   0  0  0  0  0  0  0  0  0  0  0  0
   15.4541    5.1349    0.0000 C   0  0  0  0  0  0  0  0  0  0  0  0
    7.7893   -1.8651    0.0000 C   0  0  0  0  0  0  0  0  0  0  0  0
    8.6554   -3.3651    0.0000 C   0  0  0  0  0  0  0  0  0  0  0  0
    4.5259    4.1349    0.0000 C   0  0  1  0  0  0  0  0  0  0  0  0
   12.7220    2.6349    0.0000 C   0  0  0  0  0  0  0  0  0  0  0  0
    4.5259    5.1349    0.0000 C   0  0  0  0  0  0  0  0  0  0  0  0
    9.9900    5.1349    0.0000 C   0  0  0  0  0  0  0  0  0  0  0  0
    9.1239    3.6349    0.0000 C   0  0  0  0  0  0  0  0  0  0  0  0
    7.2579    3.6349    0.0000 C   0  0  0  0  0  0  0  0  0  0  0  0
   14.1194   -3.3651    0.0000 C   0  0  0  0  0  0  0  0  0  0  0  0
    3.6598    5.6349    0.0000 C   0  0  0  0  0  0  0  0  0  0  0  0
   10.5214   -3.3651    0.0000 C   0  0  0  0  0  0  0  0  0  0  0  0
   13.2534   -2.8651    0.0000 C   0  0  0  0  0  0  0  0  0  0  0  0
    6.3919    4.1349    0.0000 C   0  0  0  0  0  0  0  0  0  0  0  0
   16.3201    5.6349    0.0000 C   0  0  0  0  0  0  0  0  0  0  0  0
   11.3874   -2.8651    0.0000 C   0  0  0  0  0  0  0  0  0  0  0  0
    3.6598    3.6349    0.0000 C   0  0  0  0  0  0  0  0  0  0  0  0
    3.6598    6.6349    0.0000 C   0  0  0  0  0  0  0  0  0  0  0  0
    5.2693   -4.9477    0.0000 H   0  0  0  0  0  0  0  0  0  0  0  0
    5.6679   -4.2575    0.0000 H   0  0  0  0  0  0  0  0  0  0  0  0
    4.5203   -3.6751    0.0000 H   0  0  0  0  0  0  0  0  0  0  0  0
    3.1556   -3.8533    0.0000 H   0  0  0  0  0  0  0  0  0  0  0  0
    2.0000   -5.1301    0.0000 H   0  0  0  0  0  0  0  0  0  0  0  0
    5.3627   -6.4703    0.0000 H   0  0  0  0  0  0  0  0  0  0  0  0
    7.2524   -2.5551    0.0000 H   0  0  0  0  0  0  0  0  0  0  0  0
    7.4602   -3.6751    0.0000 H   0  0  0  0  0  0  0  0  0  0  0  0
    2.1924   -7.1384    0.0000 H   0  0  0  0  0  0  0  0  0  0  0  0
   13.2590    3.3249    0.0000 H   0  0  0  0  0  0  0  0  0  0  0  0
   15.4541    3.5149    0.0000 H   0  0  0  0  0  0  0  0  0  0  0  0
    4.1913   -2.2451    0.0000 H   0  0  0  0  0  0  0  0  0  0  0  0
    4.7282   -3.1751    0.0000 H   0  0  0  0  0  0  0  0  0  0  0  0
   10.5269    4.4449    0.0000 H   0  0  0  0  0  0  0  0  0  0  0  0
    4.8594   -8.0101    0.0000 H   0  0  0  0  0  0  0  0  0  0  0  0
    3.2743   -8.3442    0.0000 H   0  0  0  0  0  0  0  0  0  0  0  0
   14.1250    4.4449    0.0000 H   0  0  0  0  0  0  0  0  0  0  0  0
   15.2420    5.7175    0.0000 H   0  0  0  0  0  0  0  0  0  0  0  0
   14.8435    5.0272    0.0000 H   0  0  0  0  0  0  0  0  0  0  0  0
   11.3929    3.3249    0.0000 H   0  0  0  0  0  0  0  0  0  0  0  0
    8.4093   -1.8651    0.0000 H   0  0  0  0  0  0  0  0  0  0  0  0
    7.7893   -1.2451    0.0000 H   0  0  0  0  0  0  0  0  0  0  0  0
    7.1693   -1.8651    0.0000 H   0  0  0  0  0  0  0  0  0  0  0  0
    5.0628    4.4449    0.0000 H   0  0  0  0  0  0  0  0  0  0  0  0
   12.1020    2.6349    0.0000 H   0  0  0  0  0  0  0  0  0  0  0  0
   12.7220    2.0149    0.0000 H   0  0  0  0  0  0  0  0  0  0  0  0
   13.3420    2.6349    0.0000 H   0  0  0  0  0  0  0  0  0  0  0  0
   16.8570    3.3249    0.0000 H   0  0  0  0  0  0  0  0  0  0  0  0
    5.1365    5.0272    0.0000 H   0  0  0  0  0  0  0  0  0  0  0  0
    4.7379    5.7175    0.0000 H   0  0  0  0  0  0  0  0  0  0  0  0
   10.6005    5.0272    0.0000 H   0  0  0  0  0  0  0  0  0  0  0  0
   10.2020    5.7175    0.0000 H   0  0  0  0  0  0  0  0  0  0  0  0
    6.8594    3.1599    0.0000 H   0  0  0  0  0  0  0  0  0  0  0  0
    7.6564    3.1599    0.0000 H   0  0  0  0  0  0  0  0  0  0  0  0
   10.1923   -2.5551    0.0000 H   0  0  0  0  0  0  0  0  0  0  0  0
    8.6609    4.4449    0.0000 H   0  0  0  0  0  0  0  0  0  0  0  0
    5.9288    3.3249    0.0000 H   0  0  0  0  0  0  0  0  0  0  0  0
    3.0493    5.7425    0.0000 H   0  0  0  0  0  0  0  0  0  0  0  0
    3.4478    5.0523    0.0000 H   0  0  0  0  0  0  0  0  0  0  0  0
   10.1228   -3.8401    0.0000 H   0  0  0  0  0  0  0  0  0  0  0  0
   10.9199   -3.8401    0.0000 H   0  0  0  0  0  0  0  0  0  0  0  0
   13.6520   -2.3902    0.0000 H   0  0  0  0  0  0  0  0  0  0  0  0
   12.8549   -2.3902    0.0000 H   0  0  0  0  0  0  0  0  0  0  0  0
   12.9243   -3.6751    0.0000 H   0  0  0  0  0  0  0  0  0  0  0  0
    9.1239    6.2549    0.0000 H   0  0  0  0  0  0  0  0  0  0  0  0
   16.8570    6.9449    0.0000 H   0  0  0  0  0  0  0  0  0  0  0  0
    2.2569    3.8249    0.0000 H   0  0  0  0  0  0  0  0  0  0  0  0
    2.7938    7.7549    0.0000 H   0  0  0  0  0  0  0  0  0  0  0  0
  1 32  2  0  0  0  0
  2 41  2  0  0  0  0
  3 42  2  0  0  0  0
  4 49  1  0  0  0  0
  4105  1  0  0  0  0
  5 45  2  0  0  0  0
  6 50  2  0  0  0  0
  7 52  2  0  0  0  0
  8 57  1  0  0  0  0
  8106  1  0  0  0  0
  9 56  2  0  0  0  0
 10 59  1  0  0  0  0
 10107  1  0  0  0  0
 11 57  2  0  0  0  0
 12 59  2  0  0  0  0
 13 58  2  0  0  0  0
 14 60  1  0  0  0  0
 14108  1  0  0  0  0
 15 60  2  0  0  0  0
 16 30  1  0  0  0  0
 16 31  1  0  0  0  0
 16 65  1  0  0  0  0
 17 32  1  0  0  0  0
 34 17  1  1  0  0  0
 17 68  1  0  0  0  0
 28 18  1  6  0  0  0
 18 72  1  0  0  0  0
 18 73  1  0  0  0  0
 36 19  1  1  0  0  0
 19 41  1  0  0  0  0
 19 77  1  0  0  0  0
 38 20  1  6  0  0  0
 20 42  1  0  0  0  0
 20 80  1  0  0  0  0
 37 21  1  6  0  0  0
 21 52  1  0  0  0  0
 21 88  1  0  0  0  0
 22 45  1  0  0  0  0
 22 54  1  0  0  0  0
 22 95  1  0  0  0  0
 23 50  1  0  0  0  0
 23 51  1  0  0  0  0
 23 96  1  0  0  0  0
 46 24  1  6  0  0  0
 24 56  1  0  0  0  0
 24 97  1  0  0  0  0
 25 55  1  0  0  0  0
 25 58  1  0  0  0  0
 25104  1  0  0  0  0
 26 27  1  0  0  0  0
 26 28  1  0  0  0  0
 26 61  1  0  0  0  0
 26 62  1  0  0  0  0
 27 29  1  0  0  0  0
 27 31  2  0  0  0  0
 28 32  1  0  0  0  0
 28 63  1  0  0  0  0
 29 30  1  0  0  0  0
 29 33  2  0  0  0  0
 30 35  2  0  0  0  0
 31 64  1  0  0  0  0
 33 39  1  0  0  0  0
 33 66  1  0  0  0  0
 34 44  1  0  0  0  0
 34 45  1  0  0  0  0
 34 67  1  0  0  0  0
 35 40  1  0  0  0  0
 35 69  1  0  0  0  0
 36 42  1  0  0  0  0
 36 47  1  0  0  0  0
 36 70  1  0  0  0  0
 37 41  1  0  0  0  0
 37 43  1  0  0  0  0
 37 71  1  0  0  0  0
 38 49  1  0  0  0  0
 38 50  1  0  0  0  0
 38 74  1  0  0  0  0
 39 40  2  0  0  0  0
 39 75  1  0  0  0  0
 40 76  1  0  0  0  0
 43 57  1  0  0  0  0
 43 78  1  0  0  0  0
 43 79  1  0  0  0  0
 44 81  1  0  0  0  0
 44 82  1  0  0  0  0
 44 83  1  0  0  0  0
 46 48  1  0  0  0  0
 46 59  1  0  0  0  0
 46 84  1  0  0  0  0
 47 85  1  0  0  0  0
 47 86  1  0  0  0  0
 47 87  1  0  0  0  0
 48 53  1  0  0  0  0
 48 89  1  0  0  0  0
 48 90  1  0  0  0  0
 49 91  1  0  0  0  0
 49 92  1  0  0  0  0
 51 56  1  0  0  0  0
 51 93  1  0  0  0  0
 51 94  1  0  0  0  0
 52 55  1  0  0  0  0
 53 60  1  0  0  0  0
 53 98  1  0  0  0  0
 53 99  1  0  0  0  0
 54 58  1  0  0  0  0
 54100  1  0  0  0  0
 54101  1  0  0  0  0
 55102  1  0  0  0  0
 55103  1  0  0  0  0
M  END
> <PUBCHEM_COMPOUND_CID>
68816

> <PUBCHEM_COMPOUND_CANONICALIZED>
1

> <PUBCHEM_CACTVS_COMPLEXITY>
1610

> <PUBCHEM_CACTVS_HBOND_ACCEPTOR>
16

> <PUBCHEM_CACTVS_HBOND_DONOR>
14

> <PUBCHEM_CACTVS_ROTATABLE_BOND>
25

> <PUBCHEM_CACTVS_SUBSKEYS>
AAADcfB//AAAAAAAAAAAAAAAAAAAAWAAAAAwAAAAAAAAAFgB8AAAHgAQCAAADCjhngY+yPLJkgCoAzX3XACCgCAxAiAI2aG4ZJgKcP7AkbGUYAhmtgDYyAe/r8COgAAAAAACAAAAAAAAAAQAAAAAAAAAAA==

> <PUBCHEM_IUPAC_OPENEYE_NAME>
(2S)-2-[[2-[[(2S)-2-[[(2S)-2-[[(2S)-2-[[2-[[2-[[(2S)-2-[[(2S)-2-amino-3-(1H-indol-3-yl)propanoyl]amino]propanoyl]amino]acetyl]amino]acetyl]amino]-3-carboxy-propanoyl]amino]propanoyl]amino]-3-hydroxy-propanoyl]amino]acetyl]amino]pentanedioic acid

> <PUBCHEM_IUPAC_CAS_NAME>
(2S)-2-[[2-[[(2S)-2-[[(2S)-2-[[(2S)-2-[[2-[[2-[[(2S)-2-[[(2S)-2-amino-3-(1H-indol-3-yl)-1-oxopropyl]amino]-1-oxopropyl]amino]-1-oxoethyl]amino]-1-oxoethyl]amino]-3-carboxy-1-oxopropyl]amino]-1-oxopropyl]amino]-3-hydroxy-1-oxopropyl]amino]-1-oxoethyl]amino]pentanedioic acid

> <PUBCHEM_IUPAC_NAME_MARKUP>
(2<I>S</I>)-2-[[2-[[(2<I>S</I>)-2-[[(2<I>S</I>)-2-[[(2<I>S</I>)-2-[[2-[[2-[[(2<I>S</I>)-2-[[(2<I>S</I>)-2-amino-3-(1<I>H</I>-indol-3-yl)propanoyl]amino]propanoyl]amino]acetyl]amino]acetyl]amino]-3-carboxypropanoyl]amino]propanoyl]amino]-3-hydroxypropanoyl]amino]acetyl]amino]pentanedioic acid

> <PUBCHEM_IUPAC_NAME>
(2S)-2-[[2-[[(2S)-2-[[(2S)-2-[[(2S)-2-[[2-[[2-[[(2S)-2-[[(2S)-2-amino-3-(1H-indol-3-yl)propanoyl]amino]propanoyl]amino]acetyl]amino]acetyl]amino]-3-carboxypropanoyl]amino]propanoyl]amino]-3-hydroxypropanoyl]amino]acetyl]amino]pentanedioic acid

> <PUBCHEM_IUPAC_SYSTEMATIC_NAME>
(2S)-2-[2-[[(2S)-2-[[(2S)-2-[[(2S)-2-[2-[2-[[(2S)-2-[[(2S)-2-azanyl-3-(1H-indol-3-yl)propanoyl]amino]propanoyl]amino]ethanoylamino]ethanoylamino]-4-oxidanyl-4-oxidanylidene-butanoyl]amino]propanoyl]amino]-3-oxidanyl-propanoyl]amino]ethanoylamino]pentanedioic acid

> <PUBCHEM_IUPAC_TRADITIONAL_NAME>
(2S)-2-[[2-[[(2S)-2-[[(2S)-2-[[(2S)-2-[[2-[[2-[[(2S)-2-[[(2S)-2-amino-3-(1H-indol-3-yl)propanoyl]amino]propanoyl]amino]acetyl]amino]acetyl]amino]-3-carboxy-propanoyl]amino]propanoyl]amino]-3-hydroxy-propanoyl]amino]acetyl]amino]glutaric acid

> <PUBCHEM_IUPAC_INCHI>
InChI=1S/C35H48N10O15/c1-16(41-32(56)20(36)9-18-11-37-21-6-4-3-5-19(18)21)30(54)39-12-25(47)38-13-26(48)44-23(10-29(52)53)34(58)42-17(2)31(55)45-24(15-46)33(57)40-14-27(49)43-22(35(59)60)7-8-28(50)51/h3-6,11,16-17,20,22-24,37,46H,7-10,12-15,36H2,1-2H3,(H,38,47)(H,39,54)(H,40,57)(H,41,56)(H,42,58)(H,43,49)(H,44,48)(H,45,55)(H,50,51)(H,52,53)(H,59,60)/t16-,17-,20-,22-,23-,24-/m0/s1

> <PUBCHEM_IUPAC_INCHIKEY>
ZRZROXNBKJAOKB-GFVHOAGBSA-N

> <PUBCHEM_XLOGP3>
-7.1

> <PUBCHEM_EXACT_MASS>
848.33006086

> <PUBCHEM_MOLECULAR_FORMULA>
C35H48N10O15

> <PUBCHEM_MOLECULAR_WEIGHT>
848.8

> <PUBCHEM_SMILES>
C[C@@H](C(=O)NCC(=O)NCC(=O)N[C@@H](CC(=O)O)C(=O)N[C@@H](C)C(=O)N[C@@H](CO)C(=O)NCC(=O)N[C@@H](CCC(=O)O)C(=O)O)NC(=O)[C@H](CC1=CNC2=CC=CC=C21)N

> <PUBCHEM_CONNECTIVITY_SMILES>
CC(C(=O)NCC(=O)NCC(=O)NC(CC(=O)O)C(=O)NC(C)C(=O)NC(CO)C(=O)NCC(=O)NC(CCC(=O)O)C(=O)O)NC(=O)C(CC1=CNC2=CC=CC=C21)N

> <PUBCHEM_CACTVS_TPSA>
407

> <PUBCHEM_MONOISOTOPIC_WEIGHT>
848.33006086

> <PUBCHEM_TOTAL_CHARGE>
0

> <PUBCHEM_HEAVY_ATOM_COUNT>
60

> <PUBCHEM_ATOM_DEF_STEREO_COUNT>
6

> <PUBCHEM_ATOM_UDEF_STEREO_COUNT>
0

> <PUBCHEM_BOND_DEF_STEREO_COUNT>
0

> <PUBCHEM_BOND_UDEF_STEREO_COUNT>
0

> <PUBCHEM_ISOTOPIC_ATOM_COUNT>
0

> <PUBCHEM_COMPONENT_COUNT>
1

> <PUBCHEM_CACTVS_TAUTO_COUNT>
-1

> <PUBCHEM_COORDINATE_TYPE>
1
5
255

> <PUBCHEM_BONDANNOTATIONS>
16  30  8
16  31  8
34  17  5
28  18  6
36  19  5
38  20  6
37  21  6
46  24  6
27  29  8
27  31  8
29  30  8
29  33  8
30  35  8
33  39  8
35  40  8
39  40  8

$$$$
